/*--------------------------------*- C++ -*----------------------------------*\
  =========                 |
  \\      /  F ield         | OpenFOAM: The Open Source CFD Toolbox
   \\    /   O peration     | Website:  https://openfoam.org
    \\  /    A nd           | Version:  11
     \\/     M anipulation  |
\*---------------------------------------------------------------------------*/
FoamFile
{
    format      ascii;
    class       polyBoundaryMesh;
    location    "constant/polyMesh";
    object      boundary;
}
// * * * * * * * * * * * * * * * * * * * * * * * * * * * * * * * * * * * * * //

3
(
    inlet
    {
        type            patch;
        nFaces          7000;
        startFace       4146000;
    }
    outlet
    {
        type            patch;
        nFaces          7000;
        startFace       4153000;
    }
    wall
    {
        type            wall;
        inGroups        List<word> 1(wall);
        nFaces          94000;
        startFace       4160000;
    }
)

// ************************************************************************* //
