/*--------------------------------*- C++ -*----------------------------------*\
  =========                 |
  \\      /  F ield         | OpenFOAM: The Open Source CFD Toolbox
   \\    /   O peration     | Website:  https://openfoam.org
    \\  /    A nd           | Version:  11
     \\/     M anipulation  |
\*---------------------------------------------------------------------------*/
FoamFile
{
    format      ascii;
    class       polyBoundaryMesh;
    location    "0.04/polyMesh";
    object      boundary;
}
// * * * * * * * * * * * * * * * * * * * * * * * * * * * * * * * * * * * * * //

4
(
    background
    {
        type            internal;
        inGroups        List<word> 1(internal);
        nFaces          0;
        startFace       10423177;
    }
    inlet
    {
        type            patch;
        nFaces          1042;
        startFace       10423177;
    }
    outlet
    {
        type            patch;
        nFaces          1043;
        startFace       10424219;
    }
    volume_mm_wall
    {
        type            wall;
        nFaces          930560;
        startFace       10425262;
    }
)

// ************************************************************************* //
