/*--------------------------------*- C++ -*----------------------------------*\
  =========                 |
  \\      /  F ield         | OpenFOAM: The Open Source CFD Toolbox
   \\    /   O peration     | Website:  https://openfoam.org
    \\  /    A nd           | Version:  11
     \\/     M anipulation  |
\*---------------------------------------------------------------------------*/
FoamFile
{
    format      ascii;
    class       dictionary;
    location    "system";
    object      blockMeshDict;
}
// * * * * * * * * * * * * * * * * * * * * * * * * * * * * * * * * * * * * * //

backgroundMesh
{
    xMin            0;
    xMax            0.06;
    yMin            0;
    yMax            0.02;
    zMin            0;
    zMax            0.004;
    xCells          200;
    yCells          200;
    zCells          35;
}

convertToMeters 1;

defaultPatch
{
    name wall;
    type wall;
}

vertices
(
    ($!backgroundMesh/xMin $!backgroundMesh/yMin $!backgroundMesh/zMin)
    ($!backgroundMesh/xMax $!backgroundMesh/yMin $!backgroundMesh/zMin)
    ($!backgroundMesh/xMax $!backgroundMesh/yMax $!backgroundMesh/zMin)
    ($!backgroundMesh/xMin $!backgroundMesh/yMax $!backgroundMesh/zMin)
    ($!backgroundMesh/xMin $!backgroundMesh/yMin $!backgroundMesh/zMax)
    ($!backgroundMesh/xMax $!backgroundMesh/yMin $!backgroundMesh/zMax)
    ($!backgroundMesh/xMax $!backgroundMesh/yMax $!backgroundMesh/zMax)
    ($!backgroundMesh/xMin $!backgroundMesh/yMax $!backgroundMesh/zMax)
);

boundary               // keyword
    (
        inlet              // patch name
        {
            type patch;    // patch type for patch 0
            faces
            (
                (0 4 7 3)  // block face in this patch
            );
        }                  // end of 0th patch definition

        outlet             // patch name
        {
            type patch;    // patch type for patch 1
            faces
            (
                (1 2 6 5)
            );
        }
    );

blocks
(
    hex (0 1 2 3 4 5 6 7)
    (
        $!backgroundMesh/xCells
        $!backgroundMesh/yCells
        $!backgroundMesh/zCells
    )
    simpleGrading (1 ((0.5 0.5 10)(0.5 0.5 0.1)) ((0.5 0.5 10)(0.5 0.5 0.1)))
);

edges
(
);

mergePatchPairs
(
);


// ************************************************************************* //
