/*--------------------------------*- C++ -*----------------------------------*\
  =========                 |
  \\      /  F ield         | OpenFOAM: The Open Source CFD Toolbox
   \\    /   O peration     | Website:  https://openfoam.org
    \\  /    A nd           | Version:  11
     \\/     M anipulation  |
\*---------------------------------------------------------------------------*/
FoamFile
{
    format      ascii;
    class       dictionary;
    location    "system";
    object      snappyHexMeshDict;
}
// * * * * * * * * * * * * * * * * * * * * * * * * * * * * * * * * * * * * * //

#includeEtc "caseDicts/mesh/generation/snappyHexMeshDict.cfg"

castellatedMesh on;

snap            on;

addLayers       off;

geometry
{
    volume_mm
    {
        type triSurfaceMesh;
        file "volume_mm.stl";
        regions
        {
            inlet { name inlet; }
            outlet { name outlet; }
        }
    }
}

castellatedMeshControls
{
    features
    (
    );

    refinementSurfaces
    {
        volume_mm
        {
            level (2 2);
            patchInfo
            {
                type wall;
                inGroups (externalWall);
            }

            regions
            {
                inlet
                {
                    level (2 2);
                    patchInfo { type patch; }
                }
                outlet
                {
                    level (2 2);
                    patchInfo { type patch; }
                }
            }
        }
    }

    // delete "-disabled" below to enable refinementRegions
    refinementRegions-disabled
    {
        <surface>
        {
            mode    inside;
            level   2;
        }
    }

    insidePoint (0.07 0.07 0.0027);
    nCellsBetweenLevels 3;
}

snapControls
{
    explicitFeatureSnap    off;
    implicitFeatureSnap    on;
}

addLayersControls
{
    layers
    {
        "volume_mm.*" { nSurfaceLayers 0; }
    }

    relativeSizes       on; // off, usually with firstLayerThickness
    expansionRatio      1.2;
    finalLayerThickness 0.5;
    minThickness        0.001;
    firstLayerThickness-disabled 0;
    maxThicknessToMedialRatio-disabled 0.3;
}

// delete "-disabled" to output mesh data, e.g. for layers
writeFlags-disabled
(
    scalarLevels
    layerSets
    layerFields
);

mergeTolerance 1e-6;

// ************************************************************************* //
