/*--------------------------------*- C++ -*----------------------------------*\
  =========                 |
  \\      /  F ield         | OpenFOAM: The Open Source CFD Toolbox
   \\    /   O peration     | Website:  https://openfoam.org
    \\  /    A nd           | Version:  11
     \\/     M anipulation  |
\*---------------------------------------------------------------------------*/
FoamFile
{
    format      ascii;
    class       dictionary;
    location    "constant";
    object      fvModels;
}
// * * * * * * * * * * * * * * * * * * * * * * * * * * * * * * * * * * * * * //

porosity
{
    type            explicitPorositySource;

    explicitPorositySourceCoeffs
    {
        cellZone        porousBlockage;

        type            DarcyForchheimer;


        // D 15625000000; // K = 6.4E-11
	D 1.06E10;//
	// F 17792;
	F 0; // No Forchheimer coef in the thesis 
        d   ($D $D $D);
        f   ($F $F $F);

        coordinateSystem porousBlockage;
    }
}


// ************************************************************************* //
