/*--------------------------------*- C++ -*----------------------------------*\
  =========                 |
  \\      /  F ield         | OpenFOAM: The Open Source CFD Toolbox
   \\    /   O peration     | Website:  https://openfoam.org
    \\  /    A nd           | Version:  11
     \\/     M anipulation  |
\*---------------------------------------------------------------------------*/
FoamFile
{
    format      ascii;
    class       dictionary;
    location    "constant";
    object      fvModels;
}
// * * * * * * * * * * * * * * * * * * * * * * * * * * * * * * * * * * * * * //

porosity
{
    type            explicitPorositySource;

    explicitPorositySourceCoeffs
    {
        cellZone        porousBlockage;

        type            DarcyForchheimer;

        // D 100;  // Very little blockage
        // D 200;  // Some blockage but steady flow
        // D 500;  // Slight waviness in the far wake
        D 2.21e9; // Fully shedding behavior
	    cF 0;
        d   ($D $D $D);
        f   ($cF $cF $cF);

        coordinateSystem porousBlockage;
    }
}


// ************************************************************************* //
